Version 4
SHEET 1 880 680
WIRE 176 128 -96 128
WIRE 368 128 272 128
WIRE 176 176 64 176
WIRE 368 176 288 176
WIRE -96 208 -96 128
WIRE 64 208 64 176
WIRE 176 256 176 208
WIRE -96 336 -96 288
WIRE 64 336 64 288
FLAG 176 256 0
FLAG 368 128 Q
IOPIN 368 128 Out
FLAG 368 176 /Q
IOPIN 368 176 Out
FLAG -96 336 0
FLAG 64 336 0
FLAG -96 128 V1
IOPIN -96 128 In
FLAG 64 176 V2
IOPIN 64 176 In
SYMBOL Digital\\srflop 224 80 R0
SYMATTR InstName A1
SYMBOL voltage -96 192 R0
WINDOW 3 -235 204 Left 2
WINDOW 123 0 0 Left 0
WINDOW 39 0 0 Left 0
SYMATTR InstName V1
SYMATTR Value PULSE(0 5 2 100m 100m 1 2)
SYMBOL voltage 64 192 R0
WINDOW 3 -14 202 Left 2
WINDOW 123 0 0 Left 0
WINDOW 39 0 0 Left 0
SYMATTR InstName V2
SYMATTR Value PULSE(0 5 1 10m 10m 1 3)
TEXT 368 296 Left 2 !.tran 6
